Version 4
SHEET 1 1568 680
WIRE 928 -48 624 -48
WIRE 1008 -48 928 -48
WIRE 1104 -48 1008 -48
WIRE 1504 -48 1392 -48
WIRE 0 32 -96 32
WIRE 80 32 0 32
WIRE 624 48 624 -48
WIRE 1008 48 1008 32
WIRE 1104 48 1008 48
WIRE 1408 48 1392 48
WIRE 1504 48 1504 -48
WIRE -96 80 -96 32
WIRE 1008 80 1008 48
WIRE 256 112 80 112
WIRE 368 112 336 112
WIRE 480 112 368 112
WIRE 624 112 480 112
WIRE 688 112 624 112
WIRE 784 112 688 112
WIRE 784 128 784 112
WIRE 1408 128 1408 48
WIRE 368 144 368 112
WIRE -96 192 -96 160
WIRE 1008 240 1008 160
WIRE 1248 240 1248 112
WIRE 368 256 368 208
WIRE 688 256 688 176
WIRE 784 256 784 192
FLAG -96 192 0
FLAG 368 256 0
FLAG 480 112 ADC
FLAG 0 32 Vpanel
FLAG 688 256 0
FLAG 784 256 0
FLAG 1504 128 0
FLAG 1248 240 0
FLAG 1008 240 0
FLAG 928 -48 VDD
FLAG 1408 128 0
FLAG 80 192 0
SYMBOL voltage -96 64 R0
WINDOW 123 0 0 Left 2
WINDOW 39 0 0 Left 2
SYMATTR InstName V1
SYMATTR Value 6.5V
SYMBOL res 240 128 R270
WINDOW 0 32 56 VTop 2
WINDOW 3 0 56 VBottom 2
SYMATTR InstName R1
SYMATTR Value 6.8k
SYMBOL cap 352 144 R0
SYMATTR InstName C1
SYMATTR Value 0.47µ
SYMBOL schottky 640 112 R180
WINDOW 0 -38 68 Left 2
WINDOW 3 -90 40 Left 2
SYMATTR InstName D1
SYMATTR Value 1N5817
SYMATTR Description Diode
SYMATTR Type diode
SYMBOL schottky 704 176 R180
WINDOW 0 41 23 Left 2
WINDOW 3 36 -5 Left 2
SYMATTR InstName D2
SYMATTR Value 1N5817
SYMATTR Description Diode
SYMATTR Type diode
SYMBOL cap 768 128 R0
SYMATTR InstName C2
SYMATTR Value 25p
SYMBOL voltage 1504 32 R0
WINDOW 123 0 0 Left 2
WINDOW 39 0 0 Left 2
SYMATTR InstName V2
SYMATTR Value 4.2
SYMBOL PowerProducts\\LT1963 1248 0 M0
SYMATTR InstName U1
SYMBOL res 992 -64 R0
SYMATTR InstName R2
SYMATTR Value 5.78k
SYMBOL res 992 64 R0
SYMATTR InstName R3
SYMATTR Value 3.92k
SYMBOL res 64 16 R0
SYMATTR InstName R4
SYMATTR Value 40.2k
SYMBOL res 64 96 R0
SYMATTR InstName R5
SYMATTR Value 30.1k
TEXT 264 32 Left 2 ;50 Hz RC Filter
TEXT 736 -16 Left 2 ;ADS7828
TEXT -274 326 Left 2 !.dc V1 0 6.5 0.1
RECTANGLE Normal 448 304 240 48 2
RECTANGLE Normal 880 320 512 0 2
